omf/omf/solvers/opendss/sandia_secondaryTestSet.clean.dss


!!!master.dss
clear
new object=circuit.secondarytestcircuit


! redirect vsource.dss
! redirect feeder\branches.dss
! redirect feeder\transformers.dss
! redirect feeder\loads.dss
! makebuslist
! redirect busvoltagebases.dss ! set voltage bases
! buscoords buscoords.dss
! giscoords giscoords.dss


!!!loadshape.dss
new object=loadshape.default npts=24 interval=1 mult=[0.677,0.6256,0.6087,0.5833,0.58028,0.6025,0.657,0.7477,0.832,0.88,0.94,0.989,0.985,0.98,0.9898,0.999,1,0.958,0.936,0.913,0.876,0.876,0.828,0.756]
new object=loadshape.subvoltage npts=8739 minterval=60 pmult=[1.04655,1.0447,1.04647,1.04494,1.04799,1.04454,1.04318,1.04398,1.04077,1.03829,1.04061,1.03861,1.03885,1.03652,1.0354,1.03348,1.03203,1.03773,1.03765,1.03781,1.04342,1.04286,1.04775,1.04767,1.04727,1.04663,1.04992,1.0443,1.04518,1.04005,1.0435,1.04398,1.04077,1.04382,1.03749,1.03973,1.03789,1.03805,1.03829,1.03604,1.0346,1.033,1.03508,1.03484,1.04125,1.04382,1.04398,1.04647,1.0451,1.04855,1.04735,1.04446,1.04125,1.04358,1.04045,1.03845,1.03909,1.03548,1.03893,1.03773,1.03925,1.03973,1.03492,1.03139,1.03235,1.03444,1.03508,1.03596,1.03901,1.04543,1.04454,1.0447,1.04294,1.04254,1.04743,1.03861,1.04358,1.04254,1.03428,1.03652,1.03757,1.04037,1.0419,1.03909,1.04061,1.03949,1.03845,1.03941,1.04117,1.04174,1.04238,1.04326,1.04775,1.0439,1.04494,1.04719,1.04727,1.0451,1.04567,1.04406,1.04518,1.04278,1.03853,1.03789,1.03717,1.03861,1.04077,1.03965,1.03532,1.03668,1.03909,1.03941,1.03981,1.04182,1.0451,1.04567,1.04703,1.04478,1.04366,1.0423,1.04374,1.04206,1.04502,1.04206,1.04334,1.03917,1.03171,1.04061,1.04534,1.04719,1.04334,1.04895,1.04879,1.04623,1.04478,1.04543,1.04984,1.05088,1.05056,1.05032,1.05248,1.04647,1.04759,1.04815,1.04791,1.04687,1.04935,1.04486,1.04695,1.04342,1.03412,1.0504,1.04631,1.0447,1.04029,1.04703,1.04438,1.04246,1.04294,1.04559,1.04526,1.04711,1.04727,1.04647,1.04855,1.04639,1.04422,1.0435,1.04286,1.0447,1.04446,1.04422,1.0443,1.04326,1.03789,1.03901,1.03436,1.03652,1.0362,1.03628,1.03524,1.03749,1.03893,1.04029,1.03821,1.0366,1.0362,1.03901,1.04278,1.03709,1.03989,1.03861,1.04158,1.04109,1.04166,1.04037,1.04222,1.04334,1.04085,1.04262,1.04085,1.03861,1.03436,1.03115,1.03492,1.03548,1.03773,1.03676,1.03821,1.03805,1.03813,1.04037,1.04117,1.03957,1.03989,1.03901,1.03805,1.03917,1.04109,1.04254,1.0435,1.03484,1.03941,1.04005,1.04711,1.0415,1.03356,1.03604,1.035,1.03885,1.03829,1.03845,1.04494,1.03853,1.04061,1.04294,1.04182,1.03789,1.04061,1.03741,1.03717,1.04053,1.04125,1.03676,1.0435,1.03324,1.03845,1.04061,1.04029,1.04101,1.03291,1.03444,1.03396,1.03684,1.03508,1.03572,1.03861,1.03917,1.03893,1.04005,1.04101,1.04045,1.04286,1.04254,1.04222,1.0427,1.04198,1.04278,1.0443,1.03877,1.03829,1.03941,1.04831,1.04695,1.03885,1.0346,1.035,1.03291,1.03356,1.035,1.03652,1.03668,1.03644,1.04125,1.04158,1.04053,1.04526,1.04358,1.04174,1.0415,1.04278,1.04262,1.0451,1.04446,1.04438,1.03941,1.03845,1.03909,1.04655,1.04695,1.04462,1.04358,1.03925,1.04077,1.03821,1.03757,1.0423,1.04334,1.04695,1.04158,1.0447,1.04679,1.04543,1.04486,1.04454,1.04518,1.04414,1.04206,1.0431,1.03845,1.03853,1.04029,1.0435,1.04639,1.04334,1.04246,1.04238,1.04069,1.0415,1.03821,1.0415,1.04142,1.04526,1.04093,1.04085,1.04013,1.04117,1.04069,1.04093,1.04182,1.04238,1.04318,1.04462,1.03821,1.03893,1.03636,1.03845,1.03428,1.03596,1.03572,1.03636,1.03909,1.03476,1.03588,1.03291,1.03588,1.03965,1.03612,1.03949,1.04029,1.03821,1.03877,1.03853,1.04061,1.04166,1.04005,1.04182,1.04238,1.04254,1.03757,1.03356,1.03709,1.03652,1.03725,1.03805,1.03837,1.03901,1.03476,1.03885,1.03805,1.0435,1.04085,1.04318,1.0423,1.04117,1.04254,1.04414,1.04486,1.04583,1.04551,1.04037,1.04077,1.04158,1.04711,1.04142,1.03877,1.03684,1.04053,1.04029,1.03829,1.03821,1.03925,1.03989,1.04077,1.0451,1.04366,1.04326,1.04575,1.04302,1.04182,1.0443,1.04486,1.04759,1.03692,1.03965,1.03813,1.03853,1.04502,1.0423,1.04599,1.04222,1.04117,1.04093,1.04021,1.04085,1.04206,1.04222,1.0431,1.04575,1.04534,1.04767,1.04799,1.0443,1.04486,1.04655,1.04583,1.04647,1.0451,1.03813,1.04125,1.03709,1.04037,1.03709,1.03797,1.03548,1.03436,1.0358,1.03564,1.0358,1.0358,1.03404,1.0354,1.0366,1.03604,1.04029,1.03869,1.03773,1.03885,1.03901,1.03869,1.03973,1.0415,1.03572,1.03909,1.03652,1.03564,1.03869,1.03981,1.03596,1.0358,1.03484,1.03291,1.0342,1.0342,1.03211,1.03773,1.03869,1.03572,1.03941,1.03973,1.03957,1.03829,1.03973,1.03676,1.04109,1.03773,1.03853,1.03532,1.03636,1.03556,1.03308,1.04061,1.03957,1.03845,1.03604,1.03709,1.0358,1.03765,1.03765,1.03797,1.03989,1.03556,1.03749,1.03428,1.03259,1.0342,1.03612,1.03275,1.03291,1.0346,1.02674,1.03316,1.02987,1.03243,1.03043,1.03131,1.02618,1.02875,1.03684,1.035,1.03652,1.02907,1.03131,1.0362,1.03941,1.03364,1.03604,1.0362,1.03628,1.037,1.03508,1.03644,1.03612,1.03636,1.02794,1.03588,1.03548,1.02963,1.0257,1.03163,1.037,1.03556,1.03308,1.03051,1.03275,1.02875,1.02818,1.02786,1.033,1.03203,1.03588,1.03444,1.02883,1.03396,1.03163,1.03524,1.03725,1.0346,1.0346,1.04214,1.04005,1.03572,1.02594,1.02385,1.03123,1.03019,1.02794,1.02858,1.03035,1.03211,1.03051,1.03965,1.03789,1.03291,1.03476,1.03468,1.02963,1.03332,1.03291,1.03476,1.0366,1.03845,1.03973,1.04238,1.04117,1.03877,1.02858,1.033,1.03989,1.035,1.03572,1.03684,1.03917,1.03709,1.03917,1.04134,1.03789,1.03436,1.03444,1.03412,1.03139,1.03572,1.03179,1.03348,1.03813,1.03773,1.03797,1.04206,1.04117,1.03789,1.02899,1.02971,1.02586,1.03275,1.0281,1.02826,1.03075,1.03227,1.03147,1.03235,1.03781,1.03452,1.03821,1.04222,1.03933,1.04045,1.03821,1.03965,1.04093,1.04085,1.03733,1.03781,1.03853,1.03604,1.03805,1.03813,1.03725,1.03275,1.035,1.0358,1.0334,1.037,1.04077,1.04093,1.04214,1.03877,1.03789,1.03741,1.03524,1.03171,1.0334,1.03805,1.03725,1.03989,1.04069,1.04422,1.04398,1.04382,1.04069,1.0427,1.04069,1.03235,1.03452,1.03797,1.03757,1.03741,1.03989,1.04093,1.04342,1.03139,1.03548,1.03933,1.04069,1.0431,1.03773,1.03893,1.04166,1.04158,1.04013,1.04174,1.04037,1.04069,1.02762,1.02706,1.03123,1.03259,1.03179,1.03211,1.03259,1.03067,1.03725,1.03909,1.04326,1.03684,1.04069,1.04206,1.03965,1.04101,1.03733,1.03781,1.0358,1.03901,1.03123,1.03516,1.03067,1.02923,1.03059,1.02963,1.03187,1.03243,1.03404,1.03291,1.03291,1.03436,1.03332,1.03676,1.04077,1.03652,1.03837,1.0366,1.03492,1.03941,1.03765,1.04053,1.04182,1.02794,1.03203,1.035,1.03468,1.03684,1.02923,1.02899,1.02955,1.03003,1.03107,1.03283,1.03572,1.03709,1.03516,1.0423,1.0419,1.03861,1.04158,1.04262,1.03925,1.04037,1.04294,1.04198,1.04198,1.03332,1.03709,1.04037,1.04279,1.03957,1.03259,1.03195,1.03356,1.033,1.035,1.0342,1.03949,1.03957,1.03941,1.04101,1.03933,1.03588,1.03901,1.04599,1.0427,1.04166,1.0423,1.04166,1.04342,1.04366,1.04125,1.03749,1.03781,1.03741,1.0358,1.03356,1.03773,1.03684,1.0358,1.0354,1.0354,1.0366,1.03516,1.03845,1.04013,1.03532,1.03925,1.04045,1.04037,1.03692,1.03652,1.03901,1.04077,1.03813,1.04125,1.03781,1.03604,1.03612,1.04077,1.03805,1.03901,1.03925,1.03684,1.03981,1.04045,1.03917,1.04045,1.04045,1.04318,1.03845,1.04422,1.04238,1.04069,1.03837,1.03957,1.04093,1.04053,1.04142,1.04286,1.04286,1.03676,1.03644,1.03484,1.04414,1.04045,1.03733,1.03668,1.04166,1.04366,1.0427,1.04198,1.04142,1.04382,1.04238,1.03909,1.04125,1.03853,1.03861,1.03989,1.03941,1.04101,1.04454,1.04117,1.03757,1.03733,1.03572,1.0358,1.03155,1.03067,1.03532,1.03805,1.03845,1.03821,1.03749,1.03861,1.03885,1.03965,1.03508,1.03797,1.04029,1.03364,1.03444,1.03925,1.03652,1.03781,1.04005,1.03308,1.03556,1.03372,1.03043,1.03484,1.03324,1.03099,1.0338,1.0354,1.03596,1.03604,1.03652,1.03548,1.03869,1.04318,1.03332,1.03757,1.03781,1.03636,1.03901,1.03749,1.03989,1.04198,1.03709,1.03556,1.03676,1.03821,1.0415,1.03684,1.03452,1.0334,1.03532,1.03741,1.03829,1.03524,1.03612,1.03684,1.03941,1.04029,1.03668,1.03749,1.04069,1.03396,1.03925,1.03941,1.03853,1.04238,1.04238,1.0415,1.04021,1.03805,1.03789,1.03829,1.03243,1.03396,1.03556,1.0354,1.03596,1.0346,1.03725,1.03436,1.03917,1.04005,1.03516,1.03636,1.0362,1.03211,1.0358,1.03853,1.03805,1.04174,1.0435,1.04222,1.0342,1.03604,1.03516,1.03853,1.033,1.03548,1.03484,1.03765,1.03644,1.03957,1.03749,1.03717,1.03965,1.04398,1.03893,1.03917,1.03997,1.03644,1.0366,1.04037,1.03909,1.04013,1.04005,1.03981,1.03588,1.03572,1.0338,1.03821,1.04053,1.03845,1.03612,1.03757,1.03941,1.04222,1.04318,1.0439,1.04358,1.0443,1.04166,1.0415,1.03973,1.04085,1.03901,1.0419,1.04013,1.0423,1.04318,1.0447,1.04559,1.04013,1.03797,1.03532,1.0439,1.04366,1.04174,1.04262,1.04254,1.04206,1.04278,1.0447,1.04422,1.04575,1.04085,1.04077,1.04238,1.03997,1.04101,1.04117,1.03981,1.04374,1.0435,1.04366,1.03981,1.03628,1.03588,1.03757,1.03636,1.0342,1.03468,1.03692,1.0366,1.03973,1.03717,1.035,1.03612,1.04125,1.03564,1.03933,1.03997,1.03741,1.03684,1.04174,1.04198,1.04286,1.04109,1.04366,1.04294,1.04077,1.03853,1.03837,1.03516,1.03797,1.03668,1.03901,1.04037,1.04206,1.03845,1.03853,1.04238,1.04318,1.03436,1.03324,1.03508,1.0342,1.035,1.0366,1.03692,1.03981,1.03516,1.03717,1.03749,1.03548,1.02907,1.02875,1.03283,1.03813,1.03452,1.03709,1.03692,1.03564,1.03797,1.03692,1.03869,1.04085,1.03733,1.0346,1.03684,1.0354,1.03372,1.03749,1.03612,1.03957,1.03901,1.02915,1.033,1.02834,1.03059,1.02714,1.02979,1.03965,1.03853,1.04021,1.03869,1.03933,1.04013,1.03997,1.04222,1.04134,1.03516,1.03548,1.03869,1.03717,1.03781,1.03684,1.03628,1.03941,1.03797,1.03709,1.03692,1.03572,1.03364,1.02842,1.03364,1.03757,1.03725,1.03749,1.04109,1.03989,1.04061,1.04013,1.04182,1.04623,1.03845,1.0346,1.03893,1.04134,1.0419,1.03917,1.03781,1.04286,1.03853,1.03757,1.04077,1.04029,1.03989,1.03725,1.03668,1.03652,1.03556,1.037,1.03749,1.04222,1.04125,1.0439,1.04366,1.04366,1.03476,1.035,1.03813,1.03989,1.04037,1.03885,1.04069,1.0419,1.04326,1.04446,1.04045,1.04109,1.0431,1.0358,1.04254,1.04438,1.03845,1.0415,1.04021,1.04013,1.03965,1.04158,1.04029,1.04166,1.0346,1.03372,1.04077,1.03981,1.03949,1.03773,1.03877,1.04037,1.04142,1.04358,1.04246,1.04182,1.04342,1.03949,1.03965,1.03989,1.03997,1.03973,1.03997,1.04117,1.04254,1.04294,1.04158,1.04551,1.03941,1.04398,1.04671,1.04559,1.04166,1.04013,1.03845,1.04358,1.04222,1.04142,1.04238,1.04462,1.04438,1.04117,1.04551,1.04166,1.04398,1.0415,1.04134,1.04254,1.04198,1.0423,1.04518,1.04751,1.03949,1.03516,1.04061,1.03821,1.03797,1.04117,1.04109,1.04318,1.04166,1.04366,1.0451,1.04526,1.04318,1.03684,1.03989,1.03813,1.04021,1.03789,1.0366,1.03893,1.03757,1.03725,1.03733,1.04029,1.03789,1.03532,1.03765,1.04021,1.04109,1.03989,1.03901,1.04358,1.04174,1.04222,1.04382,1.04318,1.04422,1.04142,1.03596,1.03636,1.03805,1.04182,1.03885,1.04093,1.03829,1.0427,1.0431,1.04526,1.03949,1.0334,1.03837,1.03797,1.03757,1.03684,1.03845,1.04037,1.04101,1.03797,1.04045,1.03901,1.04005,1.03484,1.03548,1.03733,1.04093,1.04286,1.04045,1.04278,1.04037,1.04318,1.04342,1.04639,1.04109,1.03933,1.04134,1.04318,1.04358,1.04526,1.0451,1.04711,1.04575,1.04671,1.04639,1.04735,1.04591,1.04294,1.04222,1.04214,1.03981,1.04366,1.0415,1.0415,1.04278,1.04534,1.04599,1.04759,1.04246,1.0419,1.0451,1.04109,1.04262,1.04502,1.04326,1.04575,1.04591,1.04591,1.04839,1.04727,1.04711,1.04663,1.04406,1.04502,1.04663,1.04462,1.0435,1.04414,1.04494,1.04543,1.04559,1.04743,1.04502,1.04013,1.04238,1.04326,1.04238,1.0435,1.04494,1.04599,1.0431,1.04695,1.04823,1.04526,1.04534,1.04037,1.04093,1.0415,1.0415,1.03869,1.04134,1.04125,1.04166,1.04222,1.04671,1.04831,1.04182,1.0362,1.04551,1.04502,1.04599,1.04727,1.04158,1.04214,1.04406,1.04518,1.04799,1.04783,1.04775,1.04382,1.04478,1.04631,1.04358,1.04454,1.04599,1.04607,1.04615,1.04502,1.04679,1.04719,1.04254,1.03628,1.04166,1.04142,1.04093,1.03949,1.04198,1.04366,1.03668,1.03436,1.02947,1.03035,1.03933,1.03813,1.03692,1.03725,1.03612,1.03532,1.03869,1.04174,1.04013,1.03957,1.04117,1.04422,1.03941,1.03941,1.03893,1.03668,1.03604,1.0366,1.03757,1.035,1.03131,1.0362,1.02754,1.02714,1.03147,1.02778,1.03227,1.03837,1.03909,1.03917,1.03941,1.04077,1.04134,1.04246,1.04238,1.0427,1.04109,1.04005,1.04021,1.03765,1.03709,1.03869,1.03997,1.04093,1.04134,1.03115,1.03043,1.02899,1.03099,1.02786,1.03027,1.03604,1.03773,1.03909,1.03965,1.04005,1.04182,1.04358,1.04101,1.0443,1.0439,1.04005,1.03933,1.03644,1.03709,1.037,1.04085,1.04398,1.04318,1.03636,1.0358,1.03805,1.03644,1.03845,1.03901,1.04029,1.03949,1.03965,1.04109,1.04206,1.04366,1.04398,1.04494,1.04783,1.04125,1.03949,1.04174,1.03933,1.03805,1.03853,1.04061,1.0415,1.04166,1.04286,1.04438,1.04551,1.04655,1.0419,1.04142,1.04278,1.04206,1.04735,1.04655,1.04871,1.04831,1.04823,1.04895,1.05136,1.04607,1.04398,1.04454,1.04318,1.04414,1.04607,1.04543,1.04839,1.04053,1.03877,1.0427,1.04085,1.04671,1.03973,1.03564,1.03869,1.03717,1.03909,1.04214,1.04278,1.04182,1.0415,1.04374,1.04719,1.04526,1.04182,1.0419,1.04005,1.04021,1.04134,1.04302,1.04751,1.04093,1.03773,1.04021,1.03989,1.03949,1.03412,1.03235,1.0342,1.03356,1.03444,1.03324,1.03612,1.03588,1.03877,1.04053,1.04438,1.04366,1.03797,1.03845,1.03628,1.03684,1.03845,1.03869,1.04045,1.04278,1.03893,1.04069,1.03965,1.03925,1.03436,1.03155,1.03131,1.03636,1.03572,1.03789,1.03797,1.03404,1.03412,1.03692,1.04109,1.03564,1.03492,1.0354,1.0346,1.03348,1.0366,1.03596,1.04037,1.04134,1.03709,1.03909,1.03901,1.03733,1.03733,1.03348,1.02955,1.03227,1.03267,1.03588,1.03404,1.0358,1.03428,1.03741,1.03644,1.03492,1.03067,1.03251,1.03123,1.03163,1.03404,1.0338,1.03492,1.04134,1.03709,1.03909,1.03901,1.03733,1.03733,1.03348,1.02955,1.03227,1.03267,1.03588,1.03845,1.037,1.03644,1.03765,1.03644,1.03476,1.03356,1.03139,1.03035,1.03171,1.03291,1.03396,1.03628,1.03356,1.02041,1.02706,1.02008,1.02073,1.02666,1.03259,1.03997,1.03917,1.0366,1.03684,1.037,1.03885,1.03989,1.04013,1.03829,1.03468,1.03019,1.03283,1.03083,1.02875,1.03227,1.0334,1.03644,1.03235,1.02891,1.01607,1.02666,1.0249,1.02425,1.033,1.04174,1.04567,1.04551,1.04583,1.04687,1.04567,1.04567,1.04567,1.04478,1.04053,1.03428,1.03652,1.03524,1.0366,1.03444,1.03348,1.03348,1.02754,1.02536,1.02433,1.02658,1.02305,1.0249,1.01776,1.0366,1.0447,1.0427,1.04061,1.04366,1.04117,1.0431,1.04174,1.03757,1.0366,1.03219,1.03219,1.02891,1.02714,1.02738,1.0257,1.02217,1.02129,1.01359,1.01936,1.01519,1.01487,1.01632,1.02089,1.03925,1.04053,1.04093,1.04053,1.04262,1.04238,1.04069,1.04101,1.04198,1.03861,1.03308,1.03476,1.03059,1.03211,1.03412,1.03243,1.0253,1.02538,1.02474,1.03291,1.02826,1.0249,1.01912,1.02417,1.03757,1.03877,1.03829,1.04013,1.03749,1.03749,1.03741,1.04382,1.04374,1.0362,1.03372,1.03484,1.03243,1.0334,1.03572,1.03596,1.03075,1.03051,1.03011,1.03091,1.02947,1.02714,1.02425,1.02297,1.03773,1.03941,1.03789,1.03973,1.04142,1.03877,1.03997,1.04053,1.04382,1.03941,1.03572,1.03452,1.03083,1.03275,1.03508,1.035,1.03548,1.03508,1.03003,1.0334,1.02963,1.02658,1.02802,1.02706,1.03516,1.03829,1.03556,1.03949,1.03957,1.03821,1.03917,1.03925,1.03893,1.04029,1.03596,1.03604,1.03484,1.03332,1.03468,1.03492,1.03147,1.03444,1.03316,1.03508,1.03628,1.03195,1.02971,1.03668,1.03877,1.0362,1.03829,1.03861,1.03837,1.03853,1.04005,1.04069,1.0451,1.04607,1.04053,1.04222,1.03901,1.04069,1.03989,1.04061,1.04238,1.0431,1.03773,1.0362,1.03476,1.03243,1.03484,1.03749,1.0435,1.0431,1.04117,1.0427,1.04286,1.04254,1.0419,1.04238,1.04647,1.04639,1.03981,1.04158,1.03933,1.04101,1.03508,1.03556,1.0358,1.03372,1.0346,1.03452,1.0423,1.03356,1.03147,1.03019,1.02899,1.02931,1.03163,1.03147,1.03227,1.02923,1.02899,1.0334,1.03556,1.03741,1.03179,1.03412,1.03067,1.03203,1.035,1.03604,1.03725,1.03596,1.03259,1.03324,1.03324,1.03572,1.02642,1.0265,1.03147,1.03492,1.03588,1.03484,1.03556,1.03556,1.03652,1.04206,1.04478,1.04158,1.03596,1.03797,1.0334,1.03476,1.03324,1.03749,1.03813,1.03155,1.02931,1.03163,1.03043,1.03131,1.02594,1.02706,1.0354,1.0338,1.03596,1.03532,1.03348,1.03316,1.03332,1.03476,1.03925,1.04109,1.03829,1.03821,1.03933,1.03893,1.03684,1.03941,1.03845,1.03227,1.02995,1.03115,1.03203,1.03195,1.02915,1.02393,1.02955,1.03195,1.03267,1.03564,1.03965,1.0366,1.03396,1.03789,1.04182,1.03957,1.03187,1.03837,1.03652,1.03508,1.03853,1.0338,1.0346,1.03115,1.02987,1.03267,1.0423,1.03492,1.02826,1.02995,1.02738,1.02826,1.02875,1.02987,1.03251,1.03813,1.03797,1.03773,1.04278,1.04061,1.0362,1.03885,1.03668,1.03813,1.03909,1.0338,1.03612,1.03291,1.03404,1.03692,1.03853,1.04117,1.03757,1.03709,1.03652,1.03508,1.03316,1.03484,1.0338,1.03492,1.03749,1.04182,1.04534,1.04214,1.0354,1.04085,1.04085,1.04077,1.04069,1.03989,1.04158,1.04286,1.03717,1.0415,1.04053,1.04061,1.04158,1.04422,1.04262,1.03989,1.04166,1.03997,1.03909,1.04005,1.04037,1.04013,1.0439,1.03821,1.03308,1.03861,1.037,1.03452,1.03797,1.03757,1.04278,1.03733,1.03949,1.03941,1.03933,1.03917,1.03596,1.03155,1.03003,1.0285,1.02979,1.02979,1.03139,1.02971,1.03532,1.03821,1.03877,1.04077,1.0334,1.03548,1.03428,1.03412,1.03644,1.03227,1.03516,1.0285,1.02987,1.03235,1.037,1.03404,1.02834,1.02401,1.02602,1.03219,1.03203,1.03813,1.03636,1.03564,1.03532,1.03885,1.03805,1.04045,1.03203,1.03572,1.03219,1.03404,1.03556,1.03316,1.03476,1.03484,1.03147,1.03308,1.03692,1.03396,1.02866,1.02594,1.03043,1.02955,1.03452,1.03596,1.03709,1.03604,1.03676,1.04101,1.04053,1.04021,1.03259,1.03468,1.035,1.03652,1.03676,1.03091,1.03508,1.02794,1.03123,1.035,1.03139,1.03147,1.02762,1.02642,1.02866,1.02955,1.02971,1.02955,1.03332,1.03211,1.0281,1.03444,1.03444,1.03821,1.03035,1.03195,1.03484,1.03291,1.03131,1.03372,1.03628,1.03316,1.03123,1.03308,1.03348,1.03492,1.02866,1.02273,1.02931,1.02506,1.02923,1.0273,1.02826,1.03003,1.02899,1.03243,1.03644,1.03717,1.03388,1.03348,1.035,1.03532,1.03484,1.03324,1.03548,1.03091,1.03332,1.03709,1.03709,1.03845,1.03364,1.03187,1.03019,1.02818,1.03348,1.03476,1.03516,1.03524,1.03596,1.03941,1.04045,1.03588,1.03203,1.03243,1.03492,1.03308,1.03644,1.03436,1.03684,1.03725,1.03749,1.03893,1.03853,1.04101,1.03709,1.03845,1.0366,1.03588,1.03644,1.03436,1.03516,1.03733,1.03781,1.03765,1.04262,1.04069,1.03316,1.0342,1.03636,1.03524,1.03676,1.03644,1.03813,1.03925,1.03805,1.03869,1.04045,1.03717,1.03067,1.02883,1.02939,1.02746,1.03211,1.02907,1.03308,1.03436,1.0358,1.03444,1.03588,1.03997,1.03243,1.03171,1.03484,1.03412,1.03628,1.03388,1.03356,1.03291,1.03612,1.03428,1.03556,1.03187,1.02762,1.02658,1.02979,1.02891,1.03091,1.03171,1.0334,1.02939,1.03259,1.03388,1.03861,1.035,1.03275,1.03235,1.03043,1.03067,1.03324,1.03147,1.03492,1.03444,1.03436,1.03275,1.03468,1.03308,1.02682,1.02682,1.0269,1.03019,1.02714,1.03179,1.03324,1.03131,1.03131,1.0358,1.03195,1.03428,1.02634,1.02842,1.02754,1.02634,1.02706,1.02915,1.03115,1.03115,1.02947,1.03147,1.03067,1.02842,1.02289,1.02425,1.0265,1.02626,1.02786,1.02698,1.0273,1.02722,1.02714,1.03235,1.03588,1.033,1.02931,1.02915,1.02931,1.0285,1.0281,1.02899,1.03019,1.03308,1.03203,1.03388,1.03259,1.02834,1.02409,1.0249,1.02522,1.02626,1.02842,1.03035,1.03332,1.03187,1.03171,1.03773,1.03765,1.03805,1.03404,1.03364,1.03524,1.03139,1.0342,1.03356,1.03556,1.03781,1.03797,1.03845,1.03789,1.03933,1.03516,1.03628,1.03668,1.03789,1.035,1.03709,1.03829,1.04061,1.04206,1.04093,1.04166,1.03909,1.03436,1.03644,1.03492,1.03308,1.03227,1.03275,1.03524,1.03676,1.03388,1.03652,1.0366,1.03556,1.03308,1.03733,1.03668,1.03925,1.0419,1.04085,1.04045,1.04174,1.03917,1.03845,1.03973,1.03733,1.03195,1.03027,1.03195,1.03348,1.03436,1.03404,1.03476,1.03524,1.03356,1.03364,1.03356,1.03067,1.02866,1.02915,1.02738,1.03051,1.03091,1.03372,1.0338,1.03259,1.03356,1.03845,1.03709,1.03797,1.02634,1.02834,1.02586,1.02778,1.03155,1.03019,1.03147,1.03147,1.03291,1.03372,1.03308,1.02891,1.02401,1.02666,1.02514,1.02706,1.02955,1.02963,1.03316,1.03075,1.0334,1.03436,1.03556,1.03749,1.02794,1.03011,1.02714,1.0269,1.03059,1.03283,1.03075,1.03027,1.03179,1.03452,1.0338,1.02866,1.02305,1.02778,1.0281,1.03003,1.03308,1.03428,1.037,1.03484,1.03388,1.03404,1.03717,1.04061,1.0273,1.02634,1.03115,1.02987,1.02995,1.03179,1.03332,1.03019,1.0342,1.03195,1.03324,1.03035,1.02466,1.02225,1.02474,1.03075,1.03588,1.03556,1.03837,1.03508,1.03548,1.03893,1.04093,1.0443,1.03684,1.03725,1.03717,1.0334,1.03668,1.02963,1.03171,1.0354,1.03492,1.03508,1.03508,1.03147,1.0265,1.03035,1.02425,1.02714,1.02931,1.02794,1.03179,1.0285,1.03043,1.02955,1.03612,1.03965,1.03468,1.0362,1.03556,1.03452,1.03476,1.03444,1.03749,1.03749,1.03773,1.03781,1.03676,1.03717,1.03187,1.03251,1.03067,1.03211,1.03251,1.03388,1.0346,1.03171,1.03532,1.03893,1.03709,1.03973,1.0358,1.03468,1.0358,1.03412,1.03668,1.03652,1.03797,1.03925,1.03981,1.04222,1.04029,1.04029,1.03997,1.04214,1.03668,1.0346,1.03676,1.03652,1.0366,1.03692,1.03652,1.03556,1.03717,1.03989,1.03332,1.03211,1.03428,1.03283,1.03324,1.03139,1.03508,1.03668,1.03644,1.03877,1.03853,1.03524,1.0281,1.02466,1.02474,1.02834,1.02875,1.02979,1.03035,1.02915,1.03139,1.03267,1.03684,1.03805,1.03187,1.03043,1.02995,1.02842,1.03027,1.03348,1.03139,1.03251,1.03332,1.035,1.03356,1.02995,1.02385,1.0253,1.02586,1.02578,1.03171,1.03051,1.03484,1.03027,1.03123,1.0342,1.03652,1.03508,1.02786,1.02979,1.03003,1.03187,1.03316,1.0338,1.03717,1.03717,1.03572,1.03893,1.03757,1.03532,1.03043,1.02834,1.03075,1.03139,1.03267,1.03332,1.0362,1.033,1.03404,1.03692,1.03965,1.03869,1.03163,1.03083,1.02722,1.02947,1.03219,1.03316,1.03404,1.03324,1.03348,1.03283,1.03348,1.03452,1.03019,1.02626,1.02602,1.02858,1.02947,1.03195,1.0346,1.03388,1.0342,1.03604,1.03837,1.03989,1.03179,1.03123,1.03155,1.02963,1.03163,1.03211,1.03308,1.0334,1.0338,1.03508,1.03308,1.02971,1.02947,1.02466,1.02642,1.02738,1.02875,1.03123,1.03219,1.03091,1.03243,1.03516,1.03564,1.04037,1.03428,1.03749,1.03436,1.03259,1.03757,1.0354,1.03556,1.03412,1.03709,1.03813,1.03733,1.03532,1.03388,1.03428,1.03091,1.02883,1.02706,1.03412,1.03717,1.03612,1.03684,1.03981,1.03917,1.04021,1.03516,1.03757,1.03644,1.03596,1.03652,1.0366,1.037,1.0366,1.03765,1.03789,1.03845,1.03749,1.03604,1.03861,1.0366,1.03564,1.03588,1.03476,1.03676,1.03749,1.03524,1.03596,1.03757,1.03877,1.03316,1.03259,1.03275,1.03283,1.03444,1.0338,1.03291,1.03259,1.03203,1.03324,1.03211,1.03059,1.02474,1.02433,1.02794,1.02762,1.02714,1.02947,1.03003,1.02842,1.02939,1.03067,1.03388,1.03612,1.03059,1.03003,1.02947,1.03251,1.03291,1.03412,1.0358,1.03259,1.03251,1.03043,1.03059,1.02802,1.02642,1.02265,1.02377,1.02482,1.0277,1.02706,1.03099,1.02995,1.0269,1.03099,1.0346,1.0358,1.03067,1.02939,1.02778,1.02931,1.03171,1.03131,1.03316,1.03308,1.03476,1.03628,1.03388,1.03227,1.02674,1.02602,1.03035,1.02883,1.03003,1.03067,1.03428,1.02891,1.02826,1.03091,1.03476,1.0354,1.03259,1.03115,1.03043,1.03115,1.03267,1.0342,1.03444,1.03452,1.03508,1.0346,1.03757,1.03316,1.02858,1.02538,1.02546,1.02786,1.02979,1.03107,1.03035,1.03556,1.03283,1.03099,1.03749,1.03604,1.03436,1.03308,1.03099,1.03107,1.03332,1.03227,1.03396,1.03332,1.03604,1.03749,1.0354,1.03644,1.03235,1.02939,1.03099,1.03356,1.0338,1.03324,1.0346,1.03131,1.03283,1.03003,1.03676,1.03588,1.03572,1.03452,1.03468,1.0354,1.035,1.03332,1.03468,1.03332,1.03412,1.03075,1.03067,1.02923,1.02578,1.02626,1.02506,1.02433,1.02457,1.02361,1.02466,1.02369,1.0261,1.02417,1.02794,1.03003,1.02818,1.03035,1.03091,1.0261,1.02907,1.02899,1.03123,1.02409,1.02722,1.02923,1.02995,1.02947,1.02482,1.02866,1.02826,1.02409,1.02642,1.02546,1.02802,1.02762,1.02899,1.02907,1.02875,1.02834,1.0253,1.02778,1.02634,1.02666,1.02337,1.02955,1.02963,1.02891,1.02883,1.03051,1.03083,1.02385,1.02393,1.02305,1.01808,1.02145,1.02105,1.0184,1.01896,1.02137,1.02345,1.0281,1.02995,1.02907,1.02433,1.02586,1.02514,1.02618,1.02538,1.02714,1.02658,1.02842,1.02979,1.03243,1.02714,1.0281,1.02762,1.0265,1.02241,1.01952,1.01984,1.01952,1.02073,1.0184,1.02209,1.02762,1.02987,1.03171,1.02562,1.02538,1.02514,1.02353,1.0257,1.0261,1.02393,1.02714,1.0273,1.02899,1.02899,1.02794,1.0269,1.02345,1.02185,1.01936,1.02217,1.02257,1.02449,1.02433,1.02457,1.02506,1.02297,1.02722,1.02594,1.02634,1.02385,1.0265,1.0261,1.02433,1.02113,1.0265,1.02874,1.0281,1.0269,1.02642,1.02457,1.02193,1.02008,1.02369,1.0253,1.0249,1.0269,1.02482,1.02409,1.02425,1.03115,1.02907,1.02786,1.0261,1.02554,1.02578,1.02385,1.02417,1.02217,1.02393,1.02842,1.0265,1.02738,1.02506,1.02602,1.02425,1.02514,1.02682,1.03091,1.03235,1.03043,1.03147,1.03115,1.03404,1.03396,1.03115,1.0277,1.0269,1.0269,1.02931,1.02722,1.02762,1.02899,1.02947,1.03171,1.0273,1.03059,1.03195,1.03091,1.02866,1.02915,1.02923,1.0277,1.02907,1.03083,1.03203,1.03147,1.02955,1.03684,1.03163,1.03115,1.02923,1.0253,1.02794,1.03043,1.03147,1.02794,1.0338,1.03267,1.03227,1.03083,1.03043,1.03171,1.03139,1.03011,1.02883,1.03203,1.03075,1.03011,1.03011,1.03187,1.03428,1.03219,1.03267,1.03051,1.0257,1.02722,1.02682,1.02891,1.02875,1.02634,1.02923,1.02802,1.02995,1.02658,1.02554,1.02337,1.0196,1.0164,1.01928,1.02257,1.02345,1.02201,1.02225,1.02265,1.02257,1.02626,1.02802,1.02241,1.02193,1.02225,1.02321,1.02369,1.01776,1.02658,1.02425,1.02345,1.02361,1.02891,1.03027,1.02073,1.02137,1.01896,1.02129,1.02089,1.02522,1.02337,1.02161,1.02329,1.02377,1.02802,1.02746,1.02578,1.02193,1.02297,1.02554,1.02506,1.02433,1.0273,1.02706,1.02594,1.02915,1.02818,1.02698,1.02161,1.02129,1.02097,1.0192,1.02008,1.02169,1.0204,1.02249,1.02506,1.02674,1.03003,1.02915,1.02345,1.02538,1.02409,1.02578,1.02722,1.03003,1.02818,1.02834,1.03051,1.03179,1.03508,1.02466,1.02249,1.02345,1.02546,1.02,1.02185,1.02153,1.02201,1.02233,1.02409,1.0261,1.02754,1.03123,1.02554,1.02586,1.02923,1.02778,1.03035,1.02802,1.03011,1.03099,1.03115,1.03163,1.02947,1.02883,1.02506,1.02305,1.02249,1.02337,1.02546,1.02081,1.02305,1.02065,1.02177,1.02818,1.02305,1.02834,1.02778,1.02786,1.02834,1.02923,1.03115,1.02554,1.03083,1.03388,1.02778,1.03067,1.03107,1.02802,1.02626,1.02361,1.02361,1.02369,1.02762,1.02642,1.02393,1.02586,1.02714,1.03139,1.03179,1.03211,1.03035,1.02746,1.0285,1.02995,1.02963,1.02834,1.02698,1.03139,1.02794,1.03003,1.03067,1.0342,1.02979,1.0253,1.02586,1.02658,1.02594,1.02554,1.02506,1.02642,1.02546,1.0269,1.02754,1.02522,1.02449,1.02329,1.0257,1.02658,1.02955,1.0281,1.02757,1.02802,1.03187,1.02826,1.02955,1.02674,1.02586,1.02289,1.02113,1.02081,1.02393,1.02145,1.01728,1.02425,1.02562,1.02939,1.02907,1.02883,1.02602,1.02233,1.02185,1.02626,1.0253,1.01808,1.02722,1.02899,1.02722,1.03115,1.02618,1.02353,1.02385,1.02289,1.02313,1.01856,1.02441,1.02081,1.01952,1.02081,1.01912,1.02305,1.02754,1.03067,1.02738,1.0249,1.02658,1.0281,1.02931,1.02738,1.03011,1.02963,1.03187,1.03219,1.03083,1.0269,1.02866,1.02514,1.02057,1.02024,1.02008,1.02289,1.02,1.02185,1.02401,1.02449,1.02971,1.02931,1.0269,1.02642,1.02626,1.02746,1.02915,1.02626,1.02971,1.03035,1.02955,1.03251,1.02875,1.02538,1.02297,1.02105,1.02193,1.02065,1.02457,1.02522,1.02425,1.02457,1.02786,1.0273,1.03155,1.03059,1.02923,1.02201,1.02369,1.02249,1.0257,1.0277,1.02834,1.02915,1.02818,1.02931,1.02746,1.02514,1.02658,1.02073,1.01872,1.02024,1.02241,1.01856,1.02105,1.02562,1.0257,1.03067,1.03203,1.03131,1.03139,1.02594,1.02802,1.03059,1.02891,1.02233,1.02987,1.03179,1.03308,1.03107,1.03107,1.03283,1.03324,1.02834,1.02738,1.02907,1.02891,1.03011,1.03011,1.02738,1.02698,1.03107,1.03171,1.03492,1.03364,1.03059,1.02971,1.03251,1.03251,1.02466,1.02963,1.02899,1.03155,1.03356,1.03332,1.02963,1.03187,1.02826,1.02538,1.02979,1.0285,1.02971,1.02971,1.0358,1.02457,1.02674,1.03011,1.02891,1.03003,1.02674,1.02778,1.02674,1.02915,1.02105,1.02754,1.0269,1.03003,1.03083,1.02538,1.02474,1.01976,1.01696,1.02057,1.02169,1.018,1.02273,1.01952,1.02353,1.02554,1.03091,1.03516,1.03075,1.0277,1.02281,1.02249,1.02642,1.02618,1.02899,1.02746,1.02939,1.02866,1.02754,1.02842,1.02976,1.02594,1.02409,1.01976,1.01752,1.02041,1.02153,1.02169,1.02345,1.02433,1.02939,1.02923,1.03099,1.02923,1.02586,1.03027,1.03027,1.03003,1.03251,1.02987,1.03062,1.03115,1.0281,1.03267,1.02658,1.02089,1.02257,1.02233,1.01896,1.02321,1.0188,1.02065,1.02145,1.02153,1.0269,1.02818,1.02794,1.02762,1.02353,1.0257,1.0257,1.0273,1.02818,1.03187,1.02265,1.02842,1.02907,1.02794,1.02409,1.02113,1.02097,1.02233,1.02498,1.0249,1.02602,1.02273,1.02041,1.02121,1.02401,1.02706,1.03075,1.02995,1.02289,1.02666,1.02626,1.02858,1.02866,1.02875,1.02321,1.03219,1.03027,1.03267,1.02425,1.02602,1.02714,1.02506,1.02297,1.02377,1.02313,1.02081,1.02065,1.02105,1.02578,1.0265,1.03067,1.03275,1.02554,1.02883,1.03035,1.03139,1.03051,1.03283,1.03219,1.03195,1.02874,1.02738,1.02754,1.02714,1.02417,1.02409,1.02746,1.02602,1.02907,1.02602,1.02474,1.02441,1.03035,1.03011,1.03115,1.03324,1.03275,1.03251,1.03468,1.03332,1.0358,1.03516,1.03372,1.03805,1.03476,1.03203,1.03211,1.03564,1.03332,1.03059,1.03444,1.03043,1.03324,1.03251,1.03235,1.03436,1.03524,1.03115,1.03428,1.03203,1.02891,1.02802,1.03003,1.02939,1.02802,1.03067,1.02979,1.03107,1.02842,1.0261,1.02401,1.02329,1.01832,1.02369,1.02449,1.0269,1.02522,1.02217,1.02105,1.01896,1.02145,1.02361,1.02738,1.02626,1.02257,1.02506,1.0253,1.02554,1.0269,1.02866,1.02818,1.02698,1.02666,1.02409,1.02,1.02385,1.01632,1.01888,1.01623,1.02008,1.02024,1.01792,1.0184,1.01607,1.02161,1.02249,1.02329,1.02602,1.01848,1.02177,1.02289,1.02554,1.02514,1.02794,1.0253,1.02666,1.02417,1.0273,1.02153,1.01992,1.02161,1.02209,1.02169,1.02137,1.02049,1.02233,1.02137,1.02313,1.02626,1.02706,1.02522,1.0281,1.02602,1.02602,1.02602,1.02417,1.02802,1.0265,1.02145,1.02866,1.03147,1.03243,1.02682,1.02433,1.02441,1.02209,1.02161,1.0257,1.02377,1.02666,1.02016,1.02177,1.0265,1.02482,1.03131,1.02866,1.02554,1.02105,1.02209,1.02594,1.02562,1.02433,1.01936,1.0281,1.02786,1.03508,1.02514,1.02337,1.02201,1.02281,1.02313,1.02337,1.02514,1.02273,1.02706,1.02578,1.0257,1.02963,1.02923,1.03123,1.02482,1.02474,1.02706,1.02939,1.03139,1.03011,1.02834,1.03131,1.03219,1.02995,1.0285,1.0281,1.02498,1.02433,1.02594,1.0253,1.02762,1.02457,1.02433,1.02618,1.02129,1.02674,1.02874,1.03107,1.02466,1.02522,1.02834,1.02746,1.03067,1.02698,1.02947,1.03075,1.03163,1.03019,1.02923,1.02883,1.02754,1.02594,1.0253,1.02778,1.02522,1.02714,1.02441,1.02361,1.0277,1.02738,1.03195,1.03211,1.02618,1.02762,1.02778,1.03139,1.03059,1.03059,1.02987,1.03083,1.03275,1.03075,1.02706,1.02329,1.02097,1.02041,1.02121,1.02097,1.02241,1.02457,1.02113,1.01976,1.02482,1.0285,1.02907,1.02762,1.02281,1.02353,1.02546,1.02682,1.02666,1.02786,1.02786,1.02762,1.02923,1.02433,1.02273,1.02169,1.02057,1.02049,1.01984,1.02081,1.01896,1.02337,1.02578,1.02586,1.02538,1.02746,1.02802,1.02706,1.02217,1.02385,1.02626,1.02634,1.02818,1.0273,1.03027,1.02778,1.02802,1.02987,1.02321,1.02562,1.02089,1.02313,1.02353,1.02217,1.02041,1.02081,1.0184,1.02153,1.02401,1.02546,1.03051,1.02409,1.02169,1.02746,1.0257,1.02915,1.03067,1.02786,1.03067,1.02963,1.03011,1.02674,1.0261,1.02562,1.02313,1.01968,1.01912,1.018,1.02016,1.01856,1.02057,1.02113,1.02457,1.0281,1.03115,1.02874,1.02586,1.02409,1.02939,1.0273,1.02858,1.02883,1.02746,1.03219,1.03083,1.02907,1.02506,1.02345,1.0253,1.02233,1.02425,1.01936,1.01992,1.01976,1.01944,1.02257,1.02482,1.02594,1.02642,1.02746,1.02377,1.02337,1.02457,1.02602,1.03019,1.02722,1.02955,1.02866,1.03011,1.02987,1.02714,1.02706,1.02602,1.02457,1.02313,1.02065,1.02345,1.01864,1.01928,1.02137,1.02578,1.02874,1.0334,1.03155,1.02706,1.02883,1.02995,1.0334,1.03235,1.03075,1.03235,1.035,1.03548,1.03476,1.03492,1.03259,1.02786,1.02738,1.02754,1.0281,1.02874,1.02498,1.02506,1.02377,1.02834,1.02899,1.03011,1.02891,1.02931,1.02834,1.02875,1.03099,1.03091,1.02995,1.02826,1.0277,1.03027,1.03179,1.02538,1.02289,1.01992,1.02233,1.02217,1.02049,1.02097,1.02057,1.02273,1.02385,1.0253,1.02722,1.03195,1.02907,1.02506,1.03019,1.0334,1.0346,1.03372,1.03436,1.02995,1.03187,1.03107,1.02923,1.02698,1.02441,1.02289,1.02802,1.0249,1.02032,1.02834,1.0257,1.02193,1.02538,1.02522,1.02538,1.02883,1.02834,1.02233,1.02089,1.02562,1.0261,1.02995,1.02842,1.02634,1.02979,1.03051,1.02498,1.02113,1.02217,1.0269,1.02385,1.02161,1.02393,1.02217,1.01936,1.02169,1.02273,1.02514,1.02698,1.03099,1.03091,1.02634,1.02698,1.02762,1.02762,1.02891,1.02899,1.02955,1.03163,1.03291,1.02786,1.0285,1.02602,1.02089,1.01952,1.02057,1.0249,1.01752,1.0184,1.02049,1.02,1.02393,1.02393,1.0277,1.02802,1.02129,1.02393,1.02979,1.02995,1.02995,1.03123,1.03227,1.03243,1.03291,1.02971,1.02866,1.0249,1.02377,1.02041,1.02105,1.01808,1.0196,1.01704,1.0184,1.02016,1.0261,1.02602,1.02297,1.02842,1.02225,1.02923,1.02666,1.02923,1.02955,1.03035,1.03324,1.03203,1.03251,1.03059,1.02931,1.03123,1.02802,1.02449,1.02594,1.02201,1.01992,1.01928,1.01816,1.02032,1.02049,1.02257,1.0257,1.02834,1.02602,1.0261,1.02834,1.02995,1.02971,1.03259,1.03324,1.03251,1.03267,1.03436,1.03388,1.03572,1.03187,1.02891,1.03019,1.0261,1.02514,1.02514,1.02177,1.02089,1.02337,1.02121,1.0257,1.0281,1.02923,1.02995,1.03187,1.03396,1.0334,1.03428,1.03476,1.03099,1.03316,1.03372,1.02891,1.02345,1.01976,1.01832,1.02049,1.02024,1.0168,1.01968,1.01479,1.01503,1.02057,1.02257,1.02345,1.0257,1.02409,1.02658,1.03011,1.03019,1.03075,1.02658,1.02754,1.03211,1.03452,1.02746,1.02754,1.02546,1.02241,1.02554,1.02281,1.02265,1.01896,1.01864,1.01992,1.0188,1.02241,1.02185,1.0265,1.02955,1.02337,1.02818,1.02754,1.02963,1.03219,1.02826,1.03139,1.03251,1.03099,1.02987,1.03115,1.02666,1.02241,1.02466,1.02249,1.02089,1.01928,1.01968,1.01888,1.02161,1.02409,1.02506,1.02658,1.03019,1.02032,1.02947,1.03067,1.03259,1.03107,1.02971,1.03115,1.02866,1.03003,1.0285,1.0285,1.02345,1.02241,1.02305,1.02321,1.02129,1.01864,1.01936,1.01784,1.01912,1.02329,1.02682,1.02602,1.0257,1.02249,1.02546,1.02506,1.03067,1.03067,1.02979,1.03083,1.03171,1.03291,1.03067,1.02955,1.03059,1.02682,1.02313,1.02169,1.0196,1.02241,1.01575,1.01944,1.02081,1.0249,1.02818,1.02193,1.02754,1.02161,1.02722,1.02554,1.02899,1.02979,1.03235,1.03227,1.03259,1.03195,1.02794,1.02754,1.02786,1.0257,1.02586,1.02858,1.02201,1.02105,1.01864,1.0168,1.02024,1.02433,1.02321,1.02818,1.03035,1.02706,1.02842,1.0334,1.03291,1.03099,1.03083,1.02971,1.02883,1.03123,1.03147,1.03099,1.02947,1.02698,1.02482,1.0249,1.02321,1.02337,1.02089,1.01816,1.01888,1.0204,1.02073,1.02257,1.02594,1.02345,1.02826,1.03083,1.0334,1.03059,1.03035,1.03075,1.03171,1.0342,1.03107,1.03051,1.02514,1.02337,1.02289,1.02097,1.02113,1.02016,1.01864,1.02129,1.01904,1.0249,1.02907,1.03131,1.02947,1.02818,1.03107,1.02441,1.02842,1.03259,1.03067,1.02955,1.03115,1.0265,1.0281,1.02666,1.02498,1.02145,1.02361,1.01792,1.02249,1.02073,1.01696,1.02201,1.01968,1.02642,1.0265,1.02554,1.02345,1.02441,1.02586,1.02874,1.02891,1.03163,1.03139,1.0354,1.0342,1.03115,1.03251,1.03348,1.02866,1.02698,1.02498,1.02538,1.02057,1.02193,1.01824,1.02113,1.02618,1.0257,1.0253,1.02939,1.02891,1.0273,1.02762,1.03195,1.03019,1.03115,1.02955,1.03187,1.03075,1.03083,1.03035,1.02995,1.02313,1.02065,1.02313,1.02153,1.01583,1.01904,1.01567,1.01672,1.02097,1.02313,1.0265,1.0261,1.02666,1.01896,1.02377,1.0265,1.03115,1.02971,1.03324,1.03572,1.03131,1.03428,1.02891,1.0281,1.02618,1.02441,1.0265,1.02618,1.01984,1.0164,1.0188,1.02016,1.02754,1.02698,1.02522,1.02562,1.0334,1.02329,1.02714,1.02674,1.02738,1.02826,1.03027,1.03187,1.03372,1.03259,1.03171,1.03283,1.033,1.02842,1.02698,1.02666,1.02538,1.02032,1.02032,1.02498,1.01792,1.02474,1.02433,1.02706,1.03267,1.03003,1.03075,1.03476,1.03508,1.03604,1.03468,1.03316,1.03011,1.03155,1.03123,1.03612,1.03476,1.03123,1.02866,1.0358,1.02826,1.03099,1.02618,1.02441,1.0265,1.02923,1.02947,1.02947,1.03548,1.02858,1.02754,1.03259,1.02891,1.03468,1.03484,1.03644,1.03644,1.03861,1.03428,1.03091,1.02907,1.02449,1.02345,1.02121,1.02185,1.02393,1.02113,1.02506,1.02482,1.02778,1.02866,1.02722,1.02738,1.02562,1.02305,1.03316,1.03107,1.03259,1.03075,1.03251,1.0338,1.03163,1.02899,1.02706,1.02706,1.02506,1.02546,1.02457,1.0249,1.02514,1.02658,1.02361,1.02891,1.02834,1.02682,1.03003,1.0342,1.0285,1.02754,1.0265,1.0334,1.03372,1.02899,1.03235,1.03628,1.03516,1.02995,1.03147,1.02417,1.02425,1.02257,1.02417,1.02345,1.02441,1.02313,1.02081,1.01992,1.02313,1.02674,1.0269,1.02907,1.02153,1.02081,1.02193,1.02538,1.02842,1.0277,1.02762,1.02698,1.03163,1.02875,1.03035,1.02153,1.02353,1.02305,1.02281,1.02073,1.02506,1.02225,1.02217,1.02113,1.02241,1.02554,1.02714,1.02666,1.02329,1.02433,1.0253,1.02658,1.02818,1.02939,1.02153,1.03171,1.03388,1.03291,1.03235,1.02738,1.02313,1.02474,1.02506,1.01976,1.0176,1.02081,1.01672,1.01928,1.02081,1.02409,1.02666,1.0257,1.02209,1.01984,1.02498,1.02698,1.02714,1.02874,1.02987,1.03011,1.03067,1.03051,1.03107,1.02778,1.02401,1.0204,1.02233,1.01848,1.01607,1.02113,1.01591,1.01455,1.02265,1.02666,1.02883,1.02097,1.0249,1.02377,1.02353,1.02866,1.03075,1.02626,1.02874,1.0269,1.03099,1.03155,1.03396,1.03043,1.02794,1.02466,1.02289,1.02129,1.0192,1.02321,1.02113,1.02016,1.02265,1.02329,1.02249,1.02666,1.02145,1.02425,1.0273,1.02987,1.03115,1.03059,1.03195,1.03267,1.03652,1.03324,1.03163,1.02562,1.0192,1.01968,1.01784,1.01607,1.01744,1.01672,1.0196,1.01704,1.02049,1.02177,1.0257,1.02642,1.02586,1.02746,1.02891,1.03019,1.02923,1.03075,1.03163,1.03388,1.03444,1.03404,1.03324,1.0253,1.02073,1.02273,1.01976,1.0172,1.01736,1.02153,1.02137,1.01607,1.02073,1.02554,1.02875,1.02915,1.02971,1.02642,1.02297,1.02618,1.02385,1.03027,1.02754,1.03155,1.03396,1.03308,1.02498,1.02842,1.02369,1.02337,1.02353,1.01952,1.0204,1.02032,1.02746,1.02265,1.02666,1.03059,1.0273,1.02794,1.02762,1.02754,1.02706,1.02987,1.02409,1.03283,1.03532,1.03019,1.03027,1.02818,1.02987,1.02738,1.02546,1.02874,1.02674,1.02746,1.02449,1.0253,1.02626,1.02562,1.02762,1.03476,1.03179,1.03308,1.02786,1.02642,1.02506,1.03083,1.02834,1.03291,1.03107,1.03316,1.03356,1.03235,1.03163,1.02594,1.02538,1.02417,1.0281,1.02594,1.02385,1.02409,1.02417,1.01872,1.02369,1.0265,1.02842,1.03027,1.03115,1.02818,1.02907,1.03235,1.03308,1.03308,1.03564,1.03163,1.0342,1.03035,1.03187,1.02778,1.02233,1.02714,1.02674,1.02546,1.0269,1.0257,1.02377,1.0249,1.0249,1.02562,1.02658,1.02947,1.02963,1.03099,1.02658,1.03556,1.03412,1.03372,1.03508,1.0338,1.03492,1.03099,1.0285,1.02786,1.02353,1.02762,1.02722,1.02778,1.02586,1.02281,1.02153,1.01848,1.02097,1.02241,1.02466,1.02546,1.02433,1.02602,1.03051,1.03187,1.03211,1.02746,1.03211,1.03412,1.03388,1.03267,1.03059,1.02209,1.02097,1.02081,1.02329,1.0196,1.02097,1.02057,1.02425,1.02474,1.02449,1.02754,1.02834,1.03051,1.03067,1.0261,1.02738,1.03019,1.02987,1.03211,1.03147,1.03308,1.03372,1.03035,1.03203,1.02506,1.02658,1.02209,1.01784,1.01856,1.02337,1.02257,1.01768,1.02016,1.02024,1.02714,1.02818,1.02786,1.03091,1.02995,1.0253,1.02682,1.02441,1.03075,1.03107,1.03324,1.03612,1.02698,1.02834,1.02907,1.02706,1.02441,1.02554,1.02554,1.02153,1.01936,1.02514,1.0249,1.02698,1.0196,1.02233,1.02674,1.02538,1.02225,1.02377,1.02738,1.02546,1.02754,1.02674,1.02955,1.03107,1.02923,1.03187,1.02842,1.02474,1.02441,1.02185,1.01728,1.02153,1.02313,1.02457,1.02401,1.02658,1.03027,1.03091,1.02786,1.02562,1.01896,1.02562,1.0277,1.02674,1.02931,1.03083,1.02963,1.03251,1.03059,1.03829,1.02482,1.02562,1.02313,1.02281,1.01888,1.02073,1.02177,1.02177,1.01832,1.02233,1.02233,1.02514,1.0265,1.02915,1.02482,1.02923,1.02642,1.02979,1.02666,1.02955,1.02995,1.03291,1.0249,1.02313,1.02041,1.02329,1.02225,1.02177,1.01864,1.02,1.01856,1.02201,1.02089,1.02538,1.02249,1.0257,1.02794,1.02915,1.03139,1.02866,1.0277,1.02858,1.03123,1.03115,1.03267,1.03324,1.03099,1.03035,1.02778,1.02923,1.02618,1.02658,1.02417,1.02361,1.02273,1.02233,1.02321,1.02385,1.02538,1.03027,1.03043,1.03107,1.03107,1.02939,1.03035,1.03452,1.03139,1.03107,1.03267,1.03444,1.0273,1.02482,1.02377,1.02257,1.02409,1.02032,1.02241,1.01976,1.02105,1.02385,1.02193,1.02441,1.02634,1.02866,1.02947,1.02273,1.02401,1.02979,1.02858,1.02947,1.03083,1.02955,1.03131,1.03067,1.0265,1.0265,1.02185,1.02233,1.02353,1.02305,1.0257,1.02313,1.01952,1.01848,1.01904,1.02161,1.01872,1.02137,1.02297,1.02257,1.02313,1.02449,1.02482,1.0273,1.03179,1.02578,1.0257,1.02666,1.02786,1.02939,1.02273,1.01856,1.01784,1.01872,1.01768,1.01696,1.02193,1.01864,1.02377,1.02161,1.02506,1.02939,1.02818,1.02554,1.02971,1.02714,1.03011,1.0253,1.02578,1.0281,1.02995,1.03187,1.0265,1.02818,1.01944,1.01744,1.01696,1.02377,1.01607,1.01696,1.01335,1.01736,1.01559,1.01864,1.02177,1.0261,1.02706,1.03235,1.0285,1.0253,1.0277,1.0277,1.02995,1.02963,1.03091,1.03372,1.02915,1.02931,1.02546,1.02441,1.02217,1.02121,1.02193,1.01736,1.01527,1.01567,1.01535,1.01768,1.01776,1.01583,1.01848,1.0273,1.02113,1.02786,1.02329,1.02289,1.02353,1.0257,1.02762,1.02722,1.02546,1.0273,1.02129,1.01607,1.01984,1.02065,1.01399,1.01383,1.01976,1.01559,1.01776,1.02032,1.02161,1.02233,1.02578,1.02594,1.02586,1.02129,1.02842,1.02738,1.02321,1.02939,1.03051,1.03468,1.03235,1.03283,1.02417,1.02024,1.0196,1.01944,1.01359,1.01575,1.02105,1.01712,1.01319,1.01503,1.01543,1.01896,1.02201,1.02441,1.02498,1.02161,1.02698,1.02554,1.0273,1.03099,1.03267,1.02915,1.02947,1.03388,1.0192,1.01832,1.0168,1.01399,1.02032,1.01664,1.01391,1.01688,1.01343,1.01439,1.01656,1.02049,1.02041,1.02265,1.01824,1.02401,1.02289,1.02754,1.0273,1.03147,1.02875,1.02842,1.02546,1.03027,1.02145,1.01407,1.0172,1.01327,1.02514,1.01744,1.01198,1.01198,1.01198,1.01623,1.01575,1.01896,1.02008,1.01736,1.01864,1.02073,1.02385,1.02361,1.02642,1.02722,1.0269,1.02778,1.02931,1.02963,1.0196,1.01768,1.01383,1.01319,1.02008,1.01359,1.00838,1.00982,1.00822,1.0111,1.01054,1.01519,1.01728,1.01648,1.01206,1.01648,1.01744,1.02008,1.02305,1.02361,1.02858,1.02594,1.02449,1.02153,1.02081,1.01792,1.01551,1.01559,1.01319,1.0087,1.00765,1.00645,1.02024,1.02417,1.02353,1.02409,1.02506,1.02554,1.02498,1.03067,1.01599,1.01856,1.01487,1.01696,1.02385,1.0249,1.02345,1.02658,1.02089,1.01207,1.01206,1.00798,1.01223,1.02081,1.018,1.01303,1.02297,1.02241,1.02578,1.02433,1.03011,1.02137,1.01912,1.02658,1.01255,1.01744,1.01928,1.01295,1.018,1.01952,1.02129,1.02217,1.01704,1.01567,1.0119,1.00348,1.01888,1.01752,1.01287,1.0188,1.02185,1.02393,1.02305,1.02674,1.02185,1.01968,1.02097,1.02754,1.01519,1.02016,1.01559,1.01928,1.02289,1.02474,1.02786,1.02265,1.02313,1.01463,1.01664,1.01158,1.01439,1.01367,1.00798,1.00717,1.00613,1.02578,1.0285,1.0285,1.02666,1.02915,1.02971,1.03115,1.037,1.03251,1.03765,1.03596,1.03893,1.03829,1.03773,1.0346,1.03332,1.02626,1.02401,1.02995,1.02217,1.0358,1.03332,1.02802,1.0273,1.03412,1.03516,1.03717,1.03717,1.03628,1.03612,1.03933,1.03572,1.03332,1.0346,1.03644,1.03893,1.04053,1.0342,1.03219,1.02746,1.02874,1.03027,1.02602,1.02915,1.03011,1.0257,1.02433,1.02209,1.02682,1.02931,1.03227,1.03348,1.03099,1.03019,1.03356,1.03532,1.03612,1.03604,1.03668,1.03725,1.03452,1.03436,1.03388,1.02818,1.02554,1.02506,1.0334,1.02642,1.02706,1.02073,1.02129,1.02506,1.0253,1.0249,1.02802,1.03075,1.03163,1.03404,1.03548,1.03765,1.03476,1.03781,1.03869,1.03917,1.03348,1.03476,1.03372,1.03083,1.02786,1.03035,1.03211,1.02385,1.02409,1.0261,1.02409,1.03203,1.03251,1.02971,1.03492,1.03412,1.03452,1.03291,1.03925,1.03452,1.03733,1.0338,1.04013,1.03797,1.03588,1.03324,1.03283,1.02971,1.03043,1.03091,1.03211,1.03051,1.03059,1.02931,1.02514,1.0265,1.02698,1.02891,1.02722,1.03259,1.02907,1.03171,1.03524,1.0342,1.03404,1.03404,1.035,1.04013,1.03636,1.03508,1.03444,1.02858,1.02658,1.02794,1.02554,1.02706,1.02738,1.03019,1.03187,1.02634,1.03051,1.03275,1.03572,1.03275,1.03805,1.0354,1.03251,1.03773,1.03516,1.03893,1.03805,1.03981,1.04037,1.03877,1.04077,1.04061,1.03484,1.033,1.0334,1.03308,1.0265,1.03011,1.0253,1.02377,1.02802,1.03372,1.03717,1.0358,1.03179,1.0277,1.03612,1.03949,1.03845,1.03524,1.03628,1.03949,1.03925,1.0366,1.03652,1.02947,1.02698,1.02891,1.02802,1.02441,1.03067,1.0253,1.0261,1.02257,1.02265,1.02562,1.03051,1.03227,1.02987,1.03356,1.03853,1.04061,1.03364,1.03219,1.03717,1.04061,1.03893,1.03572,1.0362,1.03059,1.03235,1.03131,1.03267,1.03267,1.03267,1.03267,1.02433,1.02666,1.02714,1.0285,1.03267,1.03516,1.03267,1.03901,1.03532,1.0346,1.033,1.03524,1.03356,1.03973,1.03957,1.03797,1.0366,1.03203,1.02947,1.02457,1.02554,1.03011,1.02842,1.02337,1.0342,1.03219,1.03813,1.04117,1.03837,1.03893,1.03003,1.03757,1.03187,1.03636,1.03428,1.03717,1.03556,1.03877,1.03733,1.03877,1.03821,1.03027,1.02931,1.0285,1.02738,1.03011,1.02642,1.02874,1.03043,1.02866,1.02682,1.035,1.03524,1.03789,1.03709,1.037,1.03861,1.03612,1.03187,1.03813,1.03636,1.03757,1.03668,1.03556,1.03901,1.03283,1.03035,1.02714,1.02634,1.0257,1.02698,1.02113,1.03083,1.03115,1.03283,1.03636,1.03668,1.03773,1.03885,1.0366,1.04246,1.03219,1.03267,1.03524,1.03652,1.04093,1.04061,1.03925,1.04174,1.03676,1.03267,1.03091,1.02907,1.02674,1.02498,1.02449,1.03019,1.0257,1.03091,1.03107,1.03211,1.03644,1.03692,1.035,1.04166,1.03773,1.03813,1.03516,1.03676,1.04053,1.03909,1.04238,1.04222,1.03861,1.02971,1.02931,1.02778,1.02907,1.02754,1.02891,1.0285,1.02778,1.03051,1.03709,1.03861,1.03805,1.03869,1.03893,1.03869,1.04061,1.03829,1.03636,1.03789,1.03668,1.04101,1.04093,1.03813,1.03404,1.02602,1.03011,1.02794,1.0277,1.02433,1.03075,1.02762,1.02377,1.02834,1.03019,1.03572,1.03564,1.03516,1.03524,1.03412,1.03332,1.03364,1.03709,1.03805,1.03997,1.03781,1.03572,1.03628,1.0273,1.02425,1.0285,1.03283,1.02698,1.02169,1.02377,1.02273,1.01896,1.02049,1.02666,1.02498,1.03035,1.03155,1.02802,1.03532,1.03717,1.03067,1.03428,1.03428,1.03757,1.03123,1.03596,1.03524,1.03171,1.02377,1.03139,1.0277,1.0265,1.02145,1.02032,1.01752,1.01976,1.03733,1.03628,1.03821,1.03965,1.04174,1.03909,1.04342,1.04575,1.04551,1.04735,1.0431,1.04214,1.04486,1.04518,1.04494,1.03484,1.03388,1.03412,1.03805,1.03412,1.03243,1.02698,1.03195,1.03444,1.03636,1.03901,1.04029,1.03957,1.04029,1.03676,1.035,1.04045,1.0415,1.04318,1.04679,1.04454,1.04382,1.04422,1.04551,1.04294,1.03388,1.03588,1.03171,1.03027,1.02618,1.02915,1.03019,1.02802,1.02674,1.02818,1.03612,1.03612,1.03308,1.03083,1.02778,1.03572,1.03805,1.04302,1.0451,1.04735,1.03893,1.04174,1.04206,1.03524,1.03227,1.03444,1.03532,1.03003,1.0261,1.02578,1.02474,1.03171,1.03291,1.0354,1.03588,1.03861,1.03821,1.02907,1.03211,1.03829,1.04101,1.04366,1.04142,1.04294,1.04631,1.04085,1.04695,1.04294,1.03524,1.03692,1.03717,1.0366,1.03027,1.0281,1.02233,1.03107,1.03332,1.03612,1.03508,1.0366,1.03452,1.0346,1.02754,1.03644,1.04069,1.04526,1.04655,1.04125,1.04093,1.04182,1.04013,1.04302,1.03572,1.03436,1.03396,1.03243,1.0334,1.02907,1.02794,1.03147,1.0362,1.0342,1.03644,1.03588,1.03412,1.03332,1.02866,1.03636,1.03877,1.0439,1.03885,1.02899,1.03171,1.02233,1.0204,1.02449,1.0196,1.01688,1.01728,1.01664,1.01888,1.01848,1.01519,1.01463,1.01607,1.02257,1.02369,1.0253,1.02506,1.02121,1.02265,1.02081,1.0269,1.03051,1.03291,1.03572,1.0273,1.02883,1.02297,1.02987,1.02241,1.02049,1.01656,1.01599,1.01463,1.01792,1.01607,1.01664,1.0261,1.02297,1.02457,1.02642,1.02297,1.02137,1.01848,1.02457,1.02802,1.03388,1.03139,1.03364,1.02923,1.02514,1.02971,1.02345,1.02746,1.02193,1.01864,1.01856,1.01439,1.01094,1.0196,1.01535,1.02049,1.02217,1.02201,1.02883,1.01936,1.01952,1.02369,1.02642,1.02698,1.03003,1.02722,1.03492,1.03115,1.03219,1.02826,1.02385,1.0249,1.01976,1.02193,1.01688,1.01134,1.0176,1.02032,1.01936,1.0204,1.02305,1.02634,1.02482,1.02417,1.02337,1.02249,1.02866,1.03075,1.03332,1.02762,1.03628,1.0338,1.03316,1.03444,1.02995,1.02345,1.02642,1.02626,1.02249,1.02193,1.02024,1.01752,1.01623,1.02193,1.02321,1.02217,1.0281,1.02642,1.03003,1.03171,1.03275,1.02955,1.03444,1.03123,1.03765,1.03692,1.03757,1.03789,1.03668,1.02802,1.02786,1.0277,1.02794,1.02666,1.02522,1.02113,1.02137,1.02385,1.02498,1.02329,1.0285,1.02778,1.02858,1.03283,1.03773,1.03476,1.03749,1.03091,1.03829,1.03516,1.0334,1.033,1.02209,1.02594,1.02786,1.01992,1.02249,1.01672,1.01303,1.02041,1.02225,1.02305,1.02361,1.02498,1.02786,1.0265,1.02482,1.0277,1.02907,1.0338,1.03821,1.03219,1.03211,1.03877,1.03829,1.03516,1.03324,1.02562,1.03275,1.02658,1.02225,1.01984,1.01864,1.01736,1.02297,1.03789,1.04158,1.03813,1.04278,1.04158,1.04326,1.0431,1.04318,1.04647,1.0415,1.04663,1.04655,1.04567,1.04575,1.04486,1.03741,1.04077,1.03588,1.03548,1.03316,1.02923,1.02995,1.02995,1.03235,1.03741,1.03949,1.03877,1.04182,1.04286,1.0443,1.04422,1.04543,1.04518,1.04158,1.04053,1.04414,1.04895,1.04615,1.04679,1.04093,1.03845,1.0346,1.04085,1.03709,1.0342,1.03243,1.02963,1.02955,1.03508,1.03813,1.03877,1.03997,1.03989,1.0423,1.04687,1.04895,1.05008,1.0447,1.04374,1.04583,1.0447,1.04775,1.04775,1.04326,1.03436,1.04029,1.037,1.0342,1.03075,1.03067,1.03235,1.02883,1.03187,1.0342,1.03692,1.03741,1.03965,1.03749,1.04109,1.04855,1.04943,1.04101,1.04534,1.04366,1.04414,1.04198,1.04583,1.03917,1.03412,1.04158,1.04246,1.0366,1.03308,1.03067,1.03316,1.03219,1.03067,1.03444,1.03484,1.03604,1.03452,1.03251,1.03925,1.0431,1.05024,1.04615,1.04093,1.04639,1.04526,1.04534,1.04206,1.04366,1.03179,1.03781,1.04021,1.035,1.02891,1.03003,1.02802,1.03027,1.02939,1.03452,1.03404,1.04021,1.04069,1.037,1.04134,1.0435,1.04526,1.04406,1.04486,1.04719,1.04414,1.04302,1.0439,1.03941,1.03524,1.0342,1.03508,1.03636,1.03396,1.03436,1.02987,1.03035,1.03508,1.03388,1.03524,1.03869,1.04101,1.03781,1.0415,1.04815,1.04623,1.04214,1.04647,1.04647,1.04968,1.04679,1.04799,1.04101,1.03436,1.03075,1.03853,1.03901,1.03668,1.03171,1.02995,1.03235,1.03741,1.03949,1.03877,1.04182,1.04286,1.0443,1.04422,1.04543,1.04518,1.04158,1.04053,1.04414,1.04895,1.04615,1.04679,1.04093,1.03845,1.0346,1.04085,1.03709,1.0342,1.03243,1.02963,1.02955,1.03508,1.03813,1.03877,1.03997,1.03989,1.0423,1.04687,1.04895,1.05008,1.0447,1.04374,1.04583,1.0447,1.04775,1.04775,1.04326,1.03436,1.04029,1.037,1.0342,1.03075,1.03067,1.03235,1.02883,1.03187,1.0342,1.03692,1.03741,1.03965,1.03749,1.04109,1.04855,1.04943,1.04101,1.04534,1.04366,1.04414,1.04198,1.04583,1.03917,1.03412,1.04158,1.04246,1.0366,1.03308,1.03067,1.03316,1.03219,1.03067,1.03444,1.03484,1.03604,1.03452,1.03251,1.03925,1.0431,1.05024,1.04615,1.04093,1.04639,1.04526,1.04534,1.04206,1.04366,1.03179,1.03781,1.04021,1.035,1.02891,1.03003,1.02802,1.03027,1.02939,1.03452,1.03404,1.04021,1.04069,1.037,1.04134,1.0435,1.04526,1.04406,1.04486,1.04719,1.04414,1.04302,1.0439,1.03941,1.03524,1.0342,1.03957,1.03636,1.03275,1.02891,1.03067,1.03444,1.03267,1.03709,1.03532,1.03845,1.03829,1.03797,1.04101,1.04302,1.04615,1.04815,1.04029,1.04422,1.04663,1.04005,1.04029,1.03267,1.03548,1.03749,1.03516,1.0338,1.03267,1.02947,1.03308,1.03853,1.04294,1.0423,1.04863,1.04382,1.04454,1.03885,1.04446,1.04735,1.04615,1.0443,1.04478,1.04238,1.04278,1.04358,1.04254,1.04109,1.03717,1.03837,1.03869,1.03444,1.03372,1.03195,1.03003,1.03965,1.04117,1.04294,1.04254,1.04687,1.03773,1.03821,1.04398,1.04502,1.05,1.04879,1.03877,1.04438,1.04591,1.04743,1.04968,1.04166,1.03981,1.03452,1.03709,1.03516,1.03332,1.03283,1.03316,1.03356,1.03484,1.04158,1.04494,1.04182,1.037,1.03364,1.04045,1.04093,1.04871,1.04559,1.04607,1.04775,1.04551,1.04358,1.0447,1.03572,1.03773,1.03893,1.03813,1.03291,1.03364,1.02842,1.0358,1.03251,1.03709,1.03917,1.03861,1.04374,1.03941,1.04775,1.04125,1.04823,1.04631,1.04943,1.04695,1.04743,1.04919,1.04839,1.04863,1.04478,1.0431,1.03805,1.04085,1.04198,1.04246,1.03725,1.0427,1.04342,1.04294,1.0423,1.04061,1.04735,1.04366,1.04182,1.04422,1.04615,1.04711,1.04583,1.04478,1.04021,1.04366,1.04695,1.0443,1.04045,1.03901,1.03949,1.04326,1.0362,1.03692,1.03548,1.03195,1.03283,1.03789,1.04294,1.04631,1.04679,1.04021,1.04559,1.04879,1.05008,1.04158,1.04543,1.04799,1.05112,1.05393,1.04871,1.05144,1.05072,1.04021,1.03925,1.03853,1.03404,1.04045,1.03917,1.03556,1.03644,1.03821,1.04085,1.04462,1.04246,1.04414,1.04366,1.04679,1.05184,1.04591,1.04695,1.0516,1.05072,1.05449,1.05176,1.05,1.0439,1.03933,1.03564,1.03797,1.03556,1.0334,1.0366,1.0366,1.04927,1.05088,1.04639,1.04959,1.05393,1.05288,1.04984,1.05585,1.06202,1.05938,1.05489,1.05256,1.05753,1.05785,1.05938,1.0601,1.05377,1.05112,1.04959,1.04959,1.0443,1.04863,1.04679,1.0516,1.04951,1.05152,1.05248,1.05176,1.05753,1.05689,1.05457,1.05617,1.0581,1.04959,1.05296,1.05449,1.05777,1.05946,1.05826,1.05946,1.05529,1.05152,1.04679,1.05,1.04631,1.04655,1.04711,1.04855,1.04783,1.05,1.05088,1.05176,1.05521,1.05344,1.05433,1.05304,1.05705,1.04895,1.05601,1.05569,1.0585,1.05978,1.06299,1.06026,1.05898,1.05513,1.05152,1.04631,1.05505,1.04815,1.04791,1.05056,1.04855,1.04935,1.05312,1.05409,1.05721,1.05545,1.05497,1.05569,1.05954,1.05352,1.05673,1.0581,1.06106,1.06331,1.06379,1.06451,1.0589,1.05192,1.05168,1.04767,1.04759,1.04943,1.04703,1.04494,1.04775,1.04831,1.04743,1.04663,1.05136,1.05425,1.05753,1.05641,1.05224,1.05625,1.0593,1.0601,1.0597,1.05625,1.05601,1.05777,1.05962,1.05401,1.05344,1.05144,1.04799,1.04591,1.05056,1.04575,1.04743,1.05024,1.05457,1.05593,1.06058,1.0589,1.06194,1.06219,1.0593,1.05545,1.05657,1.05946,1.06451,1.06619,1.06138,1.06475,1.06515,1.05922,1.05473,1.05192,1.04943,1.04735,1.04374,1.04358,1.0508,1.05312,1.05024,1.05513,1.05753,1.05802,1.0597,1.05505,1.05946,1.05938,1.0593,1.05737,1.04085,1.04486,1.04414,1.04583,1.04109,1.03853,1.03612,1.03532,1.03941,1.04077,1.04454,1.03869,1.03789,1.04134,1.04013,1.04045,1.03973,1.04647,1.0435,1.05024,1.05176,1.04855,1.04526,1.04984,1.04743,1.05032,1.04879,1.04502,1.04751,1.03853,1.0358,1.0362,1.04262,1.04262,1.03725,1.0342,1.03275,1.03684,1.03805,1.04302,1.04559,1.04454,1.04037,1.04534,1.05056,1.04575,1.04166,1.04382,1.04735,1.05056,1.04583,1.04543,1.04438,1.04085,1.03973,1.03901,1.03396,1.04254,1.04182,1.04246,1.04222,1.04462,1.0443,1.04623,1.04719,1.04743,1.04903,1.04976,1.04543,1.04318,1.0419,1.04823,1.05024,1.05425,1.05128,1.04927,1.04895,1.04502,1.03909,1.03981,1.03797,1.03805,1.04599,1.04278,1.04406,1.04559,1.04663,1.04751,1.04631,1.05016,1.04727,1.0508,1.04374,1.04679,1.04502,1.0508,1.04911,1.05264,1.05136,1.05377,1.04976,1.04518,1.04655,1.03813,1.03797,1.03692,1.04454,1.04029,1.03821,1.04174,1.0435,1.04422,1.04125,1.0435,1.04727,1.0508,1.04631,1.04406,1.04695,1.05008,1.0528,1.04911,1.04879,1.05168,1.05457,1.04984,1.04727,1.0435,1.04166,1.03564,1.03436,1.04422,1.04855,1.0524,1.04879,1.04895,1.05232,1.04807,1.05072,1.05072,1.04984,1.04607,1.05088,1.05024,1.05048,1.05417,1.0536,1.05296,1.05352,1.04887,1.04551,1.04462,1.04494,1.02995,1.01343,1.01391,1.01599,1.02145,1.02201,1.02594,1.02818,1.02313,1.0269,1.02578,1.0281,1.02979,1.03123,1.03316,1.033,1.02875,1.02818,1.03051,1.02281,1.02265,1.01744,1.01487,1.01648,1.01768,1.01399,1.01383,1.01519,1.01351,1.0115,1.01656,1.01816,1.01696,1.02089,1.0261,1.01704,1.02241,1.02345,1.02907,1.02834,1.033,1.03203,1.02786,1.02409,1.02329,1.01824,1.0168,1.0196,1.01704,1.01615,1.01327,1.01174,1.01367,1.01599,1.01912,1.01944,1.01944,1.02089,1.02281,1.02682,1.02305,1.02754,1.02754,1.03147,1.03155,1.03059,1.02826,1.0257,1.0249,1.01936,1.0168,1.01904,1.01511,1.0119,1.01319,1.0107,1.02401,1.03941,1.03893,1.0443,1.0447,1.04366,1.04799,1.04727,1.04174,1.04438,1.0431,1.04478,1.0451,1.03989,1.037,1.03187,1.0358,1.03332,1.0334,1.03115,1.03364,1.03091,1.02915,1.03572,1.03596,1.03251,1.04125,1.04061,1.03821,1.04214,1.04486,1.04807,1.03901,1.03989,1.04109,1.04318,1.04703,1.0366,1.04214,1.0362,1.03821,1.03741,1.03692,1.03636,1.0342,1.03444,1.02802,1.03324,1.03428,1.03717,1.04005,1.0423,1.03556,1.03949,1.04254,1.04358,1.03612,1.04222,1.04109,1.04318,1.04543,1.04302,1.04334,1.04166,1.03733,1.03604,1.03668,1.03636,1.03869,1.03789,1.03147,1.03275,1.03492,1.03532,1.03981,1.03941,1.04069,1.04214,1.04543,1.04117,1.0419,1.04518,1.03893,1.03773,1.03933,1.04214,1.04069,1.04053,1.03636,1.03725,1.03163,1.03364,1.02842,1.02955,1.0273,1.03885,1.03476,1.03765,1.03676,1.04077,1.03636,1.04077,1.04735,1.04158,1.03941,1.04767,1.04462,1.04591,1.04719,1.04053,1.03885,1.03083,1.02393,1.03107,1.03364,1.02818,1.02482,1.02393,1.02842,1.0277,1.03733,1.0334,1.03588,1.03099,1.02506,1.03356,1.04077,1.03949,1.05176,1.05248,1.04976,1.05104,1.05497,1.05545,1.05008,1.04486,1.03829,1.0354,1.03556,1.0334,1.02963,1.02642,1.0253,1.02674,1.03308,1.03596,1.04109,1.03404,1.03436,1.03709,1.04518,1.04984,1.04799,1.05016,1.04559,1.03877,1.03059,1.02987,1.02265,1.02562,1.02794,1.02377,1.02915,1.0273,1.02674,1.02257,1.02177,1.02225,1.02169,1.02016,1.02377,1.0273,1.02289,1.03059,1.03035,1.03741,1.03275,1.03652,1.03676,1.03933,1.03652,1.0354,1.03163,1.03067,1.0261,1.02401,1.03139,1.03115,1.02642,1.02145,1.02105,1.02482,1.02506,1.02514,1.02923,1.0257,1.02778,1.02842,1.033,1.03668,1.03356,1.03877,1.03973,1.0334,1.03636,1.03612,1.0334,1.03107,1.03308,1.0277,1.02466,1.02562,1.02578,1.02225,1.01952,1.02105,1.02057,1.02409,1.02578,1.02834,1.02907,1.03019,1.03324,1.0342,1.03933,1.03853,1.03749,1.03933,1.03869,1.03885,1.03749,1.03829,1.03348,1.02826,1.03035,1.02826,1.02594,1.0277,1.02401,1.03115,1.02449,1.0285,1.03308,1.03436,1.03147,1.03829,1.03692,1.04134,1.04029,1.04182,1.04109,1.04125,1.02826,1.02778,1.03027,1.03532,1.03083,1.0265,1.02786,1.0261,1.02482,1.03131,1.02233,1.0249,1.03027,1.03003,1.02802,1.03267,1.03003,1.03564,1.03901,1.04061,1.03941,1.037,1.03781,1.03997,1.04069,1.03781,1.03324,1.02842,1.02794,1.02562,1.02522,1.02241,1.0261,1.02393,1.02409,1.02345,1.0269,1.02706,1.02754,1.03011,1.03115,1.03219,1.03965,1.03612,1.03636,1.03845,1.03973,1.03877,1.03741,1.0285,1.02947,1.03027,1.02674,1.02161,1.02353,1.02289,1.02105,1.01904,1.01607,1.02441,1.03155,1.02514,1.02939,1.02474,1.0265,1.03019,1.03484,1.03717,1.03396,1.03981,1.03877,1.03797,1.03717,1.03805,1.03412,1.03235,1.02939,1.02081,1.02778,1.02674,1.02249,1.02185,1.0196,1.02329,1.02241,1.02449,1.02482,1.02457,1.02041,1.0261,1.02915,1.03227,1.02866,1.03099,1.03692,1.03516,1.03853,1.0346,1.03043,1.03219,1.02506,1.0253,1.02858,1.02369,1.02401,1.01952,1.02105,1.02121,1.02337,1.0265,1.0249,1.02337,1.02353,1.02049,1.03019,1.0362,1.0342,1.03548,1.03444,1.03171,1.03492,1.0354,1.03051,1.03067,1.02883,1.02818,1.033,1.03043,1.02682,1.0257,1.01912,1.02145,1.02225,1.02377,1.02778,1.0249,1.02786,1.03131,1.0334,1.03275,1.03075,1.0362,1.035,1.03604,1.033,1.033,1.03267,1.03356,1.02955,1.02698,1.02457,1.02842,1.02401,1.02449,1.02618,1.0269,1.02899,1.03051,1.03179,1.0354,1.0342,1.03524,1.03909,1.03717,1.03556,1.03628,1.03917,1.04093,1.0366,1.03965,1.04085,1.04318,1.03813,1.03428,1.02866,1.02449,1.02883,1.02915,1.02514,1.02538,1.03107,1.03187,1.03348,1.03524,1.03235,1.03364,1.033,1.0346,1.03765,1.03596,1.03901,1.04125,1.0419,1.03925,1.03957,1.04142,1.03203,1.02618,1.02562,1.02474,1.03107,1.02385,1.02169,1.0253,1.02449,1.02682,1.03211,1.03275,1.02706,1.03155,1.03171,1.03372,1.03652,1.03805,1.03909,1.03861,1.03725,1.03452,1.03356,1.02842,1.02289,1.03243,1.03155,1.03123,1.02883,1.0265,1.02161,1.02065,1.02209,1.02337,1.02546,1.02907,1.02674,1.02875,1.03428,1.03652,1.03869,1.037,1.03957,1.03893,1.03845,1.03612,1.03291,1.03051,1.02457,1.02586,1.03131,1.02498,1.02073,1.02145,1.02105,1.02,1.02105,1.02682,1.0273,1.03155,1.02754,1.03291,1.0358,1.03692,1.03652,1.03997,1.03684,1.03973,1.03644,1.03636,1.03187,1.0334,1.02891,1.02818,1.02498,1.0261,1.0253,1.02305,1.02249,1.02065,1.02217,1.02826,1.02794,1.02658,1.02834,1.03131,1.03524,1.04005,1.03861,1.04029,1.04109,1.03901,1.04021,1.03797,1.03211,1.03051,1.0277,1.02786,1.02385,1.02618,1.03267,1.02482,1.02193,1.02185,1.02337,1.02506,1.02738,1.02746,1.02738,1.03332,1.03452,1.03316,1.03005,1.03332,1.03797,1.03644,1.03243,1.03692,1.03636,1.03532,1.03003,1.02345,1.02554,1.02634,1.02875,1.02145,1.0253,1.02457,1.02826,1.03035,1.03043,1.03524,1.02706,1.03508,1.03781,1.03692,1.03668,1.03821,1.035,1.03845,1.03829,1.03789,1.03829,1.04254,1.03083,1.03211,1.02834,1.02634,1.03059,1.02345,1.02955,1.02858,1.02858,1.02818,1.03123,1.035,1.03283,1.03789,1.03444,1.03805,1.033,1.03572,1.03781,1.03564,1.0358,1.0354,1.03235,1.02762,1.02538,1.02883,1.02826,1.03035,1.02546,1.02762,1.02474,1.02401,1.02626,1.02794,1.02931,1.03508,1.03219,1.03588,1.03805,1.0354,1.03444,1.03636,1.0342,1.03885,1.03829,1.03556,1.03211,1.02987,1.02866,1.02522,1.02217,1.02409,1.02225,1.02265,1.02137,1.02305,1.02449,1.02578,1.02891,1.03011,1.02754,1.0334,1.03396,1.03067,1.03476,1.03789,1.0358,1.03909,1.03861,1.03813,1.03476,1.0285,1.02971,1.02883,1.0265,1.02441,1.02858,1.02818,1.02818,1.02947,1.03099,1.03396,1.03396,1.03684,1.03508,1.03644,1.03877,1.03949,1.03733,1.033,1.03532,1.03805,1.04029,1.03532,1.03251,1.03452,1.03179,1.02858,1.02345,1.02594,1.02514,1.03179,1.02858,1.02634,1.03091,1.03275,1.03452,1.03396,1.03492,1.03805,1.03059,1.03524,1.0354,1.03636,1.03957,1.03829,1.03941,1.03821,1.03404,1.03596,1.02963,1.02602,1.02754,1.02289,1.02987,1.02698,1.02417,1.02602,1.02586,1.03011,1.0346,1.03709,1.0338,1.03797,1.03123,1.0362,1.03773,1.03436,1.03805,1.03773,1.04182,1.03981,1.03861,1.03805,1.03444,1.02698,1.02923,1.02858,1.02554,1.02802,1.02899,1.02907,1.03243,1.03356,1.03725,1.04206,1.03813,1.04021,1.04061,1.03917,1.03
...